
Actelion Java MolfileCreator 2.0

  0  0  0  0  0  0              0 V3000
M  V30 BEGIN CTAB
M  V30 COUNTS 14 15 0 0 0
M  V30 BEGIN ATOM
M  V30 1 O -0.4961 1.929 -0.7354 0
M  V30 2 N 0.2185 2.867 0.0457 0
M  V30 3 N -0.1659 0.5961 -0.5207 0
M  V30 4 N 0.9551 2.5069 0.9971 0
M  V30 5 N 0.1805 0.2771 0.7885 0
M  V30 6 C -0.8625 -0.3644 -1.2204 0
M  V30 7 N 1.1077 1.1782 1.2328 0
M  V30 8 N 0.6096 -0.9914 1.0154 0
M  V30 9 C -0.8095 -1.6598 -0.9013 0
M  V30 10 C 0.1018 -1.8981 0.2371 0
M  V30 11 H -1.4414 0.013 -2.0548 0
M  V30 12 H 1.5336 0.9618 2.1264 0
M  V30 13 H -1.312 -2.4638 -1.412 0
M  V30 14 H 0.3805 -2.9518 0.4015 0
M  V30 END ATOM
M  V30 BEGIN BOND
M  V30 1 1 1 2
M  V30 2 1 1 3
M  V30 3 2 2 4
M  V30 4 1 3 5
M  V30 5 1 3 6
M  V30 6 1 4 7
M  V30 7 1 5 8
M  V30 8 2 6 9
M  V30 9 2 8 10
M  V30 10 1 5 7
M  V30 11 1 9 10
M  V30 12 1 6 11
M  V30 13 1 7 12
M  V30 14 1 9 13
M  V30 15 1 10 14
M  V30 END BOND
M  V30 END CTAB
M  END
>  <ID>
24864

>  <Stereo Isomer>
1

>  <Energy>
9.8896

>  <Error>


$$$$
